Circuit: * C:\Users\Ema\Desktop\Tema1_ELTH\Circuit_tema1.asc

Direct Newton iteration for .op point succeeded.

Date: Sat May 22 16:38:11 2021
Total elapsed time: 0.077 seconds.

tnom = 27
temp = 27
method = trap
totiter = 3
traniter = 0
tranpoints = 0
accept = 0
rejected = 0
matrix size = 9
fillins = 1
solver = Normal
Matrix Compiler1: 350 bytes object code size
Matrix Compiler2: 613 bytes object code size
